data/ENWL/enwl_phase_to_neutral_embedded/network_11/Feeder_1/Loads.txt
! Imported from Loads.txt, with modified neutral terminal
! -------------------------------------------------------------------------
New Load.LOAD1 Phases=1 Bus1=88.1 kV=0.23 kW=1.968  PF=0.95
New Load.LOAD2 Phases=1 Bus1=120.2 kV=0.23 kW=0.306  PF=0.95
New Load.LOAD3 Phases=1 Bus1=121.3 kV=0.23 kW=2.94  PF=0.95
New Load.LOAD4 Phases=1 Bus1=122.1 kV=0.23 kW=0.324  PF=0.95
New Load.LOAD5 Phases=1 Bus1=123.2 kV=0.23 kW=1.332  PF=0.95
New Load.LOAD6 Phases=1 Bus1=124.3 kV=0.23 kW=3.0540000000000003  PF=0.95
New Load.LOAD7 Phases=1 Bus1=125.1 kV=0.23 kW=2.0580000000000003  PF=0.95
New Load.LOAD8 Phases=1 Bus1=126.2 kV=0.23 kW=0.29400000000000004  PF=0.95
New Load.LOAD9 Phases=1 Bus1=127.3 kV=0.23 kW=0.312  PF=0.95
New Load.LOAD10 Phases=1 Bus1=128.1 kV=0.23 kW=0.27  PF=0.95
New Load.LOAD11 Phases=1 Bus1=138.2 kV=0.23 kW=0.33  PF=0.95
New Load.LOAD12 Phases=1 Bus1=139.2 kV=0.23 kW=0.33  PF=0.95
New Load.LOAD13 Phases=1 Bus1=140.2 kV=0.23 kW=0.246  PF=0.95
New Load.LOAD14 Phases=1 Bus1=141.2 kV=0.23 kW=2.04  PF=0.95
New Load.LOAD15 Phases=1 Bus1=142.2 kV=0.23 kW=0.8280000000000001  PF=0.95
New Load.LOAD16 Phases=1 Bus1=199.2 kV=0.23 kW=0.11399999999999999  PF=0.95
New Load.LOAD17 Phases=1 Bus1=200.3 kV=0.23 kW=0.28800000000000003  PF=0.95
New Load.LOAD18 Phases=1 Bus1=201.1 kV=0.23 kW=0.324  PF=0.95
New Load.LOAD19 Phases=1 Bus1=202.2 kV=0.23 kW=1.944  PF=0.95
New Load.LOAD20 Phases=1 Bus1=203.3 kV=0.23 kW=0.264  PF=0.95
New Load.LOAD21 Phases=1 Bus1=204.1 kV=0.23 kW=0.336  PF=0.95
New Load.LOAD22 Phases=1 Bus1=205.2 kV=0.23 kW=0.966  PF=0.95
New Load.LOAD23 Phases=1 Bus1=206.3 kV=0.23 kW=0.246  PF=0.95
New Load.LOAD24 Phases=1 Bus1=207.1 kV=0.23 kW=1.956  PF=0.95
New Load.LOAD25 Phases=1 Bus1=208.2 kV=0.23 kW=0.29400000000000004  PF=0.95
New Load.LOAD26 Phases=1 Bus1=209.3 kV=0.23 kW=0.336  PF=0.95
New Load.LOAD27 Phases=1 Bus1=210.1 kV=0.23 kW=0.27  PF=0.95
New Load.LOAD28 Phases=1 Bus1=211.2 kV=0.23 kW=0.276  PF=0.95
New Load.LOAD29 Phases=1 Bus1=212.3 kV=0.23 kW=0.34800000000000003  PF=0.95
New Load.LOAD30 Phases=1 Bus1=213.1 kV=0.23 kW=0.264  PF=0.95
New Load.LOAD31 Phases=1 Bus1=214.2 kV=0.23 kW=0.28200000000000003  PF=0.95
! -------------------------------------------------------------------------